Version 4
SHEET 1 1444 2152
WIRE 384 -192 192 -192
WIRE 640 -192 464 -192
WIRE 192 -160 192 -192
WIRE 640 -112 640 -192
WIRE -352 -80 -432 -80
WIRE -128 -80 -272 -80
WIRE 144 -80 -128 -80
WIRE -432 -32 -432 -80
WIRE -128 -32 -128 -80
WIRE 640 48 640 -32
WIRE -432 64 -432 48
WIRE -128 64 -128 32
WIRE -128 64 -432 64
WIRE 192 64 192 -64
WIRE 192 64 -128 64
WIRE 400 64 192 64
WIRE 400 112 400 64
WIRE 192 128 192 64
WIRE 144 208 16 208
WIRE 16 224 16 208
WIRE 400 224 400 192
WIRE 400 224 192 224
WIRE 192 240 192 224
WIRE 16 336 16 304
FLAG 192 240 0
FLAG 640 48 0
FLAG 16 336 0
SYMBOL nmos 144 128 R0
SYMATTR InstName M1
SYMATTR Value IRFP450
SYMATTR Prefix X
SYMBOL res 0 208 R0
SYMATTR InstName R1
SYMATTR Value 10K
SYMBOL res 480 -208 R90
WINDOW 0 0 56 VBottom 2
WINDOW 3 32 56 VTop 2
SYMATTR InstName R2
SYMATTR Value 1
SYMBOL voltage -432 -48 R0
WINDOW 123 0 0 Left 2
WINDOW 39 0 0 Left 2
SYMATTR InstName V1
SYMATTR Value PULSE(0 15 0 10u 10u 100u 220u)
SYMBOL nmos 144 -160 R0
SYMATTR InstName M2
SYMATTR Value IRFP450
SYMATTR Prefix X
SYMBOL voltage 640 -128 R0
SYMATTR InstName V2
SYMATTR Value 300
SYMBOL res -256 -96 R90
WINDOW 0 0 56 VBottom 2
WINDOW 3 32 56 VTop 2
SYMATTR InstName R3
SYMATTR Value 220
SYMBOL res 384 96 R0
SYMATTR InstName R4
SYMATTR Value 100
SYMBOL cap -144 -32 R0
SYMATTR InstName C1
SYMATTR Value 1n
TEXT 472 264 Left 2 !*Jun 10, 2010\n*Doc. ID: 90151, Rev. A\n*File Name: part irfp450_PS.txt and part irfp450_PS.spi\n*This document is intended as a SPICE modeling guideline and does not\n*constitute a commercial product data sheet.  Designers should refer to the\n*appropriate data sheet of the same number for guaranteed specification\n*limits.\n.SUBCKT irfp450 1 2 3\n**************************************\n*      Model Generated by MODPEX     *\n*Copyright(c) Symmetry Design Systems*\n*         All Rights Reserved        *\n*    UNPUBLISHED LICENSED SOFTWARE   *\n*   Contains Proprietary Information *\n*      Which is The Property of      *\n*     SYMMETRY OR ITS LICENSORS      *\n*Commercial Use or Resale Restricted *\n*   by Symmetry License Agreement    *\n**************************************\n* Model generated on May  9, 97\n* MODEL FORMAT: SPICE3\n* Symmetry POWER MOS Model (Version 1.0)\n* External Node Designations\n* Node 1 -> Drain\n* Node 2 -> Gate\n* Node 3 -> Source\nM1 9 7 8 8 MM L=100u W=100u\n* Default values used in MM:\n* The voltage-dependent capacitances are\n* not included. Other default values are:\n*   RS=0 RD=0 LD=0 CBD=0 CBS=0 CGBO=0\n.MODEL MM NMOS LEVEL=1 IS=1e-32\n+VTO=3.94179 LAMBDA=0.0307503 KP=16.5085\n+CGSO=2.39257e-05 CGDO=1e-11\nRS 8 3 0.0455396\nD1 3 1 MD\n.MODEL MD D IS=2.41146e-08 RS=0.0112778 N=1.5 BV=500\n+IBV=0.00025 EG=1 XTI=1.00001 TT=1e-07\n+CJO=2.3701e-09 VJ=3.618 M=0.9 FC=0.1\nRDS 3 1 2e+07\nRD 9 1 0.246212\nRG 2 7 2.73829\nD2 4 5 MD1\n* Default values used in MD1:\n*   RS=0 EG=1.11 XTI=3.0 TT=0\n*   BV=infinite IBV=1mA\n.MODEL MD1 D IS=1e-32 N=50\n+CJO=4.70723e-09 VJ=1.38588 M=0.9 FC=1e-08\nD3 0 5 MD2\n* Default values used in MD2:\n*   EG=1.11 XTI=3.0 TT=0 CJO=0\n*   BV=infinite IBV=1mA\n.MODEL MD2 D IS=1e-10 N=1 RS=2.99997e-06\nRL 5 10 1\nFI2 7 9 VFI2 -1\nVFI2 4 0 0\nEV16 10 0 9 7 1\nCAP 11 10 4.70723e-09\nFI1 7 9 VFI1 -1\nVFI1 11 6 0\nRCAP 6 10 1\nD4 0 6 MD3\n* Default values used in MD3:\n*   EG=1.11 XTI=3.0 TT=0 CJO=0\n*   RS=0 BV=infinite IBV=1mA\n.MODEL MD3 D IS=1e-10 N=1\n.ENDS irfp450
TEXT -8 2136 Left 2 !.tran 1m
